Circuit: * C:\Users\gvaib\Vaibhav\IITM\Acads\Semester 4\EE2019 - Analog Systems and Lab\Exp1\Draft3.asc

WARNING: Node N002 is floating.

WARNING: Less than two connections to node N002.  This node is used by R1.
Direct Newton iteration for .op point succeeded.

Date: Thu Feb 02 21:29:37 2023
Total elapsed time: 0.079 seconds.

tnom = 27
temp = 27
method = modified trap
totiter = 2099
traniter = 2096
tranpoints = 1049
accept = 1049
rejected = 0
matrix size = 4
fillins = 0
solver = Normal
Matrix Compiler1: 136 bytes object code size  0.1/0.1/[0.1]
Matrix Compiler2: off  [0.1]/0.1/0.1

