Circuit: * C:\Users\gvaib\Vaibhav\IITM\Acads\Semester 4\EE2019 - Analog Systems and Lab\Exp2\Draft1.asc

.OP point found by inspection.

Date: Thu Feb 23 00:17:35 2023
Total elapsed time: 0.257 seconds.

tnom = 27
temp = 27
method = modified trap
totiter = 11112
traniter = 11112
tranpoints = 5557
accept = 3746
rejected = 1811
matrix size = 4
fillins = 0
solver = Normal
Matrix Compiler1: 100 bytes object code size  0.1/0.1/[0.1]
Matrix Compiler2: off  [0.1]/0.1/0.1

