Circuit: * C:\Users\gvaib\Vaibhav\IITM\Acads\Semester 4\EE2019 - Analog Systems and Lab\Lab\Exp7\Draft2.asc

Direct Newton iteration for .op point succeeded.

Date: Sat Mar 18 22:46:53 2023
Total elapsed time: 0.046 seconds.

tnom = 27
temp = 27
method = modified trap
totiter = 2091
traniter = 2088
tranpoints = 1045
accept = 1045
rejected = 0
matrix size = 2
fillins = 0
solver = Normal
Matrix Compiler1: 36 bytes object code size  0.1/0.1/[0.0]
Matrix Compiler2: 96 bytes object code size  0.0/0.1/[0.0]

