Circuit: * C:\Users\gvaib\Vaibhav\IITM\Acads\Semester 4\EE2019 - Analog Systems and Lab\Lab\Exp7\Draft1.asc

Limiting rise time of source v3 to 1.9984e-016
Limiting fall time of source v3 to 1.9984e-016
Limiting rise time of source v1 to 1e-008
Limiting fall time of source v1 to 1e-008
.OP point found by inspection.

Date: Sat Mar 18 18:13:13 2023
Total elapsed time: 195.436 seconds.

tnom = 27
temp = 27
method = modified trap
totiter = 122007436
traniter = 122007436
tranpoints = 61003719
accept = 47459009
rejected = 13544710
matrix size = 6
fillins = 0
solver = Normal
Matrix Compiler1: off  [0.0]/0.0/0.0
Matrix Compiler2: off  [0.0]/0.1/0.0

