Circuit: * C:\Users\gvaib\Vaibhav\IITM\Acads\Semester 4\EE2019 - Analog Systems and Lab\Lab\Exp7\prelab7.asc

Direct Newton iteration failed to find .op point.  (Use ".option noopiter" to skip.)
Starting Gmin stepping
Gmin = 10
Gmin = 1.07374
Gmin = 0.115292
Gmin = 0.0123794
Gmin = 0.00132923
Gmin = 0.000142725
Gmin = 1.5325e-005
Gmin = 1.6455e-006
Gmin = 1.76685e-007
Gmin = 1.89714e-008
Gmin = 2.03704e-009
Gmin = 2.18725e-010
Gmin = 2.34854e-011
Gmin = 2.52173e-012
Gmin = 2.70769e-013
Gmin = 0
Gmin stepping succeeded in finding the operating point.


Date: Fri Mar 17 16:29:58 2023
Total elapsed time: 63.226 seconds.

tnom = 27
temp = 27
method = modified trap
totiter = 12382863
traniter = 12382480
tranpoints = 3186233
accept = 2147730
rejected = 1038503
matrix size = 21
fillins = 7
solver = Normal
Matrix Compiler1: 1.42 KB object code size  0.7/0.4/[0.2]
Matrix Compiler2: 1.91 KB object code size  0.3/0.4/[0.3]

