Circuit: * C:\Users\gvaib\Vaibhav\IITM\Acads\Semester 4\EE2019 - Analog Systems and Lab\Lab\Exp8\Draft1.asc

Direct Newton iteration for .op point succeeded.

Date: Sat Mar 25 00:14:59 2023
Total elapsed time: 0.030 seconds.

tnom = 27
temp = 27
method = trap
totiter = 3
traniter = 0
tranpoints = 0
accept = 0
rejected = 0
matrix size = 7
fillins = 0
solver = Normal
Avg thread counts: 12.0/0.0/12.0/11.4
Matrix Compiler1:      10 opcodes
Matrix Compiler2: 405 bytes object code size
