Circuit: * C:\Users\gvaib\Vaibhav\IITM\Acads\Semester 4\EE2019 - Analog Systems and Lab\Lab\Exp3\prelab3.asc

Per .tran options, skipping operating point for transient analysis.
Changing Tseed to 9.76562e-09
Changing Tseed to 9.76563e-11

Date: Thu Apr 20 22:18:08 2023
Total elapsed time: 182.386 seconds.

tnom = 27
temp = 27
method = modified trap
totiter = 5595364
traniter = 5595364
tranpoints = 1759694
accept = 1308515
rejected = 451177
matrix size = 55
fillins = 17
solver = Normal
Avg thread counts: 1.0/1.0/1.0/1.0
Matrix Compiler1: 3.53 KB object code size  2.8/1.2/[0.6]
Matrix Compiler2: 4.57 KB object code size  1.6/1.3/[0.5]

