Circuit: * C:\Users\gvaib\Vaibhav\IITM\Acads\Semester 4\EE2019 - Analog Systems and Lab\Lab\Exp4\Draft2.asc

Limiting fall time of source v2 to 0.001
WARNING: Less than two connections to node VIN.  This node is used by V1.
.OP point found by inspection.
.step cx=1
.step cx=2
.step cx=3
.step cx=4
.step cx=5
.step cx=6
.step cx=7
.step cx=8
.step cx=9
.step cx=10

Date: Sat Feb 25 01:24:49 2023
Total elapsed time: 0.477 seconds.

tnom = 27
temp = 27
method = modified trap
totiter = 2306
traniter = 2306
tranpoints = 1154
accept = 1130
rejected = 24
matrix size = 6
fillins = 0
solver = Normal
Matrix Compiler1:       7 opcodes  0.1/[0.1]/0.1
Matrix Compiler2: 292 bytes object code size  0.1/0.1/[0.0]

