Circuit: * C:\Users\gvaib\Vaibhav\IITM\Acads\Semester 4\EE2019 - Analog Systems and Lab\Lab\Exp4\Draft1.asc

Limiting fall time of source v2 to 0.001
WARNING: Less than two connections to node VIN2.  This node is used by V2.
.step r=0.02
.step r=0.1
.step r=0.4
.step r=1
.step r=1.4
.step r=2
.step r=5
.step r=10
.step r=20
.step r=100

Date: Fri Feb 24 22:51:43 2023
Total elapsed time: 0.189 seconds.

tnom = 27
temp = 27
method = trap
totiter = 0
traniter = 0
tranpoints = 0
accept = 0
rejected = 0
matrix size = 6
fillins = 0
solver = Normal

