Circuit: * C:\Users\gvaib\Vaibhav\IITM\Acads\Semester 4\EE2019 - Analog Systems and Lab\Lab\Exp6\prelab6.asc

Direct Newton iteration for .op point succeeded.

Date: Fri Mar 10 15:50:18 2023
Total elapsed time: 15.427 seconds.

tnom = 27
temp = 27
method = modified trap
totiter = 800033
traniter = 800030
tranpoints = 400016
accept = 240018
rejected = 159998
matrix size = 14
fillins = 2
solver = Normal
Matrix Compiler1: 742 bytes object code size  0.5/0.3/[0.2]
Matrix Compiler2: 1.13 KB object code size  0.3/0.5/[0.2]

